5
scan along A:[ 0.        0.       -0.115688] --> B[ 0.       -0.758056  0.471834] - dist:6.75
O      0.000000     0.000000    -0.115688  1
H      0.000000    -0.758056     0.471834  1
H      0.000000     0.758056     0.471834  1
Po    -6.750000    -0.758056     0.471834  2
Ne    -7.750000    -0.758056     0.471834  3
