8
scan along A:[-1.183009e+00  9.000000e-06  4.400000e-05] --> B[-1.551986  0.908175  0.472453] - dist:10.0
CH3    -1.183009     0.000009     0.000044  1
CN     0.280591    -0.000033    -0.000101  1
N      1.434854     0.000012     0.000006  1
H     -1.551986     0.908175     0.472453  1
H     -1.551961    -0.863153     0.550412  1
H     -1.552113    -0.044999    -1.022607  1
Po    -4.942838     9.254107     4.813832  2
Ne    -5.281923    10.088699     5.247970  3
