8
scan along A:[ 2.80591e-01 -3.30000e-05 -1.01000e-04] --> B[-1.183009e+00  9.000000e-06  4.400000e-05] - dist:2.0
CH3    -1.183009     0.000009     0.000044  1
CN     0.280591    -0.000033    -0.000101  1
N      1.434854     0.000012     0.000006  1
H     -1.551986     0.908175     0.472453  1
H     -1.551961    -0.863153     0.550412  1
H     -1.552113    -0.044999    -1.022607  1
Po    -3.183009     0.000066     0.000242  2
Ne    -4.183009     0.000095     0.000341  3
8
scan along A:[ 2.80591e-01 -3.30000e-05 -1.01000e-04] --> B[-1.183009e+00  9.000000e-06  4.400000e-05] - dist:2.25
CH3    -1.183009     0.000009     0.000044  1
CN     0.280591    -0.000033    -0.000101  1
N      1.434854     0.000012     0.000006  1
H     -1.551986     0.908175     0.472453  1
H     -1.551961    -0.863153     0.550412  1
H     -1.552113    -0.044999    -1.022607  1
Po    -3.433009     0.000074     0.000267  2
Ne    -4.433009     0.000102     0.000366  3
8
scan along A:[ 2.80591e-01 -3.30000e-05 -1.01000e-04] --> B[-1.183009e+00  9.000000e-06  4.400000e-05] - dist:2.5
CH3    -1.183009     0.000009     0.000044  1
CN     0.280591    -0.000033    -0.000101  1
N      1.434854     0.000012     0.000006  1
H     -1.551986     0.908175     0.472453  1
H     -1.551961    -0.863153     0.550412  1
H     -1.552113    -0.044999    -1.022607  1
Po    -3.683009     0.000081     0.000292  2
Ne    -4.683009     0.000109     0.000391  3
8
scan along A:[ 2.80591e-01 -3.30000e-05 -1.01000e-04] --> B[-1.183009e+00  9.000000e-06  4.400000e-05] - dist:2.75
CH3    -1.183009     0.000009     0.000044  1
CN     0.280591    -0.000033    -0.000101  1
N      1.434854     0.000012     0.000006  1
H     -1.551986     0.908175     0.472453  1
H     -1.551961    -0.863153     0.550412  1
H     -1.552113    -0.044999    -1.022607  1
Po    -3.933009     0.000088     0.000316  2
Ne    -4.933009     0.000117     0.000416  3
8
scan along A:[ 2.80591e-01 -3.30000e-05 -1.01000e-04] --> B[-1.183009e+00  9.000000e-06  4.400000e-05] - dist:3.0
CH3    -1.183009     0.000009     0.000044  1
CN     0.280591    -0.000033    -0.000101  1
N      1.434854     0.000012     0.000006  1
H     -1.551986     0.908175     0.472453  1
H     -1.551961    -0.863153     0.550412  1
H     -1.552113    -0.044999    -1.022607  1
Po    -4.183009     0.000095     0.000341  2
Ne    -5.183009     0.000124     0.000440  3
8
scan along A:[ 2.80591e-01 -3.30000e-05 -1.01000e-04] --> B[-1.183009e+00  9.000000e-06  4.400000e-05] - dist:3.25
CH3    -1.183009     0.000009     0.000044  1
CN     0.280591    -0.000033    -0.000101  1
N      1.434854     0.000012     0.000006  1
H     -1.551986     0.908175     0.472453  1
H     -1.551961    -0.863153     0.550412  1
H     -1.552113    -0.044999    -1.022607  1
Po    -4.433009     0.000102     0.000366  2
Ne    -5.433009     0.000131     0.000465  3
8
scan along A:[ 2.80591e-01 -3.30000e-05 -1.01000e-04] --> B[-1.183009e+00  9.000000e-06  4.400000e-05] - dist:3.5
CH3    -1.183009     0.000009     0.000044  1
CN     0.280591    -0.000033    -0.000101  1
N      1.434854     0.000012     0.000006  1
H     -1.551986     0.908175     0.472453  1
H     -1.551961    -0.863153     0.550412  1
H     -1.552113    -0.044999    -1.022607  1
Po    -4.683009     0.000109     0.000391  2
Ne    -5.683009     0.000138     0.000490  3
8
scan along A:[ 2.80591e-01 -3.30000e-05 -1.01000e-04] --> B[-1.183009e+00  9.000000e-06  4.400000e-05] - dist:3.75
CH3    -1.183009     0.000009     0.000044  1
CN     0.280591    -0.000033    -0.000101  1
N      1.434854     0.000012     0.000006  1
H     -1.551986     0.908175     0.472453  1
H     -1.551961    -0.863153     0.550412  1
H     -1.552113    -0.044999    -1.022607  1
Po    -4.933009     0.000117     0.000416  2
Ne    -5.933009     0.000145     0.000515  3
8
scan along A:[ 2.80591e-01 -3.30000e-05 -1.01000e-04] --> B[-1.183009e+00  9.000000e-06  4.400000e-05] - dist:4.0
CH3    -1.183009     0.000009     0.000044  1
CN     0.280591    -0.000033    -0.000101  1
N      1.434854     0.000012     0.000006  1
H     -1.551986     0.908175     0.472453  1
H     -1.551961    -0.863153     0.550412  1
H     -1.552113    -0.044999    -1.022607  1
Po    -5.183009     0.000124     0.000440  2
Ne    -6.183009     0.000152     0.000539  3
8
scan along A:[ 2.80591e-01 -3.30000e-05 -1.01000e-04] --> B[-1.183009e+00  9.000000e-06  4.400000e-05] - dist:4.25
CH3    -1.183009     0.000009     0.000044  1
CN     0.280591    -0.000033    -0.000101  1
N      1.434854     0.000012     0.000006  1
H     -1.551986     0.908175     0.472453  1
H     -1.551961    -0.863153     0.550412  1
H     -1.552113    -0.044999    -1.022607  1
Po    -5.433009     0.000131     0.000465  2
Ne    -6.433009     0.000160     0.000564  3
8
scan along A:[ 2.80591e-01 -3.30000e-05 -1.01000e-04] --> B[-1.183009e+00  9.000000e-06  4.400000e-05] - dist:4.5
CH3    -1.183009     0.000009     0.000044  1
CN     0.280591    -0.000033    -0.000101  1
N      1.434854     0.000012     0.000006  1
H     -1.551986     0.908175     0.472453  1
H     -1.551961    -0.863153     0.550412  1
H     -1.552113    -0.044999    -1.022607  1
Po    -5.683009     0.000138     0.000490  2
Ne    -6.683009     0.000167     0.000589  3
8
scan along A:[ 2.80591e-01 -3.30000e-05 -1.01000e-04] --> B[-1.183009e+00  9.000000e-06  4.400000e-05] - dist:4.75
CH3    -1.183009     0.000009     0.000044  1
CN     0.280591    -0.000033    -0.000101  1
N      1.434854     0.000012     0.000006  1
H     -1.551986     0.908175     0.472453  1
H     -1.551961    -0.863153     0.550412  1
H     -1.552113    -0.044999    -1.022607  1
Po    -5.933009     0.000145     0.000515  2
Ne    -6.933009     0.000174     0.000614  3
8
scan along A:[ 2.80591e-01 -3.30000e-05 -1.01000e-04] --> B[-1.183009e+00  9.000000e-06  4.400000e-05] - dist:5.0
CH3    -1.183009     0.000009     0.000044  1
CN     0.280591    -0.000033    -0.000101  1
N      1.434854     0.000012     0.000006  1
H     -1.551986     0.908175     0.472453  1
H     -1.551961    -0.863153     0.550412  1
H     -1.552113    -0.044999    -1.022607  1
Po    -6.183009     0.000152     0.000539  2
Ne    -7.183009     0.000181     0.000638  3
8
scan along A:[ 2.80591e-01 -3.30000e-05 -1.01000e-04] --> B[-1.183009e+00  9.000000e-06  4.400000e-05] - dist:5.25
CH3    -1.183009     0.000009     0.000044  1
CN     0.280591    -0.000033    -0.000101  1
N      1.434854     0.000012     0.000006  1
H     -1.551986     0.908175     0.472453  1
H     -1.551961    -0.863153     0.550412  1
H     -1.552113    -0.044999    -1.022607  1
Po    -6.433009     0.000160     0.000564  2
Ne    -7.433009     0.000188     0.000663  3
8
scan along A:[ 2.80591e-01 -3.30000e-05 -1.01000e-04] --> B[-1.183009e+00  9.000000e-06  4.400000e-05] - dist:5.5
CH3    -1.183009     0.000009     0.000044  1
CN     0.280591    -0.000033    -0.000101  1
N      1.434854     0.000012     0.000006  1
H     -1.551986     0.908175     0.472453  1
H     -1.551961    -0.863153     0.550412  1
H     -1.552113    -0.044999    -1.022607  1
Po    -6.683009     0.000167     0.000589  2
Ne    -7.683009     0.000196     0.000688  3
8
scan along A:[ 2.80591e-01 -3.30000e-05 -1.01000e-04] --> B[-1.183009e+00  9.000000e-06  4.400000e-05] - dist:5.75
CH3    -1.183009     0.000009     0.000044  1
CN     0.280591    -0.000033    -0.000101  1
N      1.434854     0.000012     0.000006  1
H     -1.551986     0.908175     0.472453  1
H     -1.551961    -0.863153     0.550412  1
H     -1.552113    -0.044999    -1.022607  1
Po    -6.933009     0.000174     0.000614  2
Ne    -7.933009     0.000203     0.000713  3
8
scan along A:[ 2.80591e-01 -3.30000e-05 -1.01000e-04] --> B[-1.183009e+00  9.000000e-06  4.400000e-05] - dist:6.0
CH3    -1.183009     0.000009     0.000044  1
CN     0.280591    -0.000033    -0.000101  1
N      1.434854     0.000012     0.000006  1
H     -1.551986     0.908175     0.472453  1
H     -1.551961    -0.863153     0.550412  1
H     -1.552113    -0.044999    -1.022607  1
Po    -7.183009     0.000181     0.000638  2
Ne    -8.183009     0.000210     0.000737  3
8
scan along A:[ 2.80591e-01 -3.30000e-05 -1.01000e-04] --> B[-1.183009e+00  9.000000e-06  4.400000e-05] - dist:6.25
CH3    -1.183009     0.000009     0.000044  1
CN     0.280591    -0.000033    -0.000101  1
N      1.434854     0.000012     0.000006  1
H     -1.551986     0.908175     0.472453  1
H     -1.551961    -0.863153     0.550412  1
H     -1.552113    -0.044999    -1.022607  1
Po    -7.433009     0.000188     0.000663  2
Ne    -8.433009     0.000217     0.000762  3
8
scan along A:[ 2.80591e-01 -3.30000e-05 -1.01000e-04] --> B[-1.183009e+00  9.000000e-06  4.400000e-05] - dist:6.5
CH3    -1.183009     0.000009     0.000044  1
CN     0.280591    -0.000033    -0.000101  1
N      1.434854     0.000012     0.000006  1
H     -1.551986     0.908175     0.472453  1
H     -1.551961    -0.863153     0.550412  1
H     -1.552113    -0.044999    -1.022607  1
Po    -7.683009     0.000196     0.000688  2
Ne    -8.683009     0.000224     0.000787  3
8
scan along A:[ 2.80591e-01 -3.30000e-05 -1.01000e-04] --> B[-1.183009e+00  9.000000e-06  4.400000e-05] - dist:6.75
CH3    -1.183009     0.000009     0.000044  1
CN     0.280591    -0.000033    -0.000101  1
N      1.434854     0.000012     0.000006  1
H     -1.551986     0.908175     0.472453  1
H     -1.551961    -0.863153     0.550412  1
H     -1.552113    -0.044999    -1.022607  1
Po    -7.933009     0.000203     0.000713  2
Ne    -8.933009     0.000231     0.000812  3
8
scan along A:[ 2.80591e-01 -3.30000e-05 -1.01000e-04] --> B[-1.183009e+00  9.000000e-06  4.400000e-05] - dist:7.0
CH3    -1.183009     0.000009     0.000044  1
CN     0.280591    -0.000033    -0.000101  1
N      1.434854     0.000012     0.000006  1
H     -1.551986     0.908175     0.472453  1
H     -1.551961    -0.863153     0.550412  1
H     -1.552113    -0.044999    -1.022607  1
Po    -8.183009     0.000210     0.000737  2
Ne    -9.183009     0.000239     0.000837  3
8
scan along A:[ 2.80591e-01 -3.30000e-05 -1.01000e-04] --> B[-1.183009e+00  9.000000e-06  4.400000e-05] - dist:7.25
CH3    -1.183009     0.000009     0.000044  1
CN     0.280591    -0.000033    -0.000101  1
N      1.434854     0.000012     0.000006  1
H     -1.551986     0.908175     0.472453  1
H     -1.551961    -0.863153     0.550412  1
H     -1.552113    -0.044999    -1.022607  1
Po    -8.433009     0.000217     0.000762  2
Ne    -9.433009     0.000246     0.000861  3
8
scan along A:[ 2.80591e-01 -3.30000e-05 -1.01000e-04] --> B[-1.183009e+00  9.000000e-06  4.400000e-05] - dist:7.5
CH3    -1.183009     0.000009     0.000044  1
CN     0.280591    -0.000033    -0.000101  1
N      1.434854     0.000012     0.000006  1
H     -1.551986     0.908175     0.472453  1
H     -1.551961    -0.863153     0.550412  1
H     -1.552113    -0.044999    -1.022607  1
Po    -8.683009     0.000224     0.000787  2
Ne    -9.683009     0.000253     0.000886  3
8
scan along A:[ 2.80591e-01 -3.30000e-05 -1.01000e-04] --> B[-1.183009e+00  9.000000e-06  4.400000e-05] - dist:7.75
CH3    -1.183009     0.000009     0.000044  1
CN     0.280591    -0.000033    -0.000101  1
N      1.434854     0.000012     0.000006  1
H     -1.551986     0.908175     0.472453  1
H     -1.551961    -0.863153     0.550412  1
H     -1.552113    -0.044999    -1.022607  1
Po    -8.933009     0.000231     0.000812  2
Ne    -9.933009     0.000260     0.000911  3
8
scan along A:[ 2.80591e-01 -3.30000e-05 -1.01000e-04] --> B[-1.183009e+00  9.000000e-06  4.400000e-05] - dist:8.0
CH3    -1.183009     0.000009     0.000044  1
CN     0.280591    -0.000033    -0.000101  1
N      1.434854     0.000012     0.000006  1
H     -1.551986     0.908175     0.472453  1
H     -1.551961    -0.863153     0.550412  1
H     -1.552113    -0.044999    -1.022607  1
Po    -9.183009     0.000239     0.000837  2
Ne   -10.183009     0.000267     0.000936  3
8
scan along A:[ 2.80591e-01 -3.30000e-05 -1.01000e-04] --> B[-1.183009e+00  9.000000e-06  4.400000e-05] - dist:8.25
CH3    -1.183009     0.000009     0.000044  1
CN     0.280591    -0.000033    -0.000101  1
N      1.434854     0.000012     0.000006  1
H     -1.551986     0.908175     0.472453  1
H     -1.551961    -0.863153     0.550412  1
H     -1.552113    -0.044999    -1.022607  1
Po    -9.433009     0.000246     0.000861  2
Ne   -10.433009     0.000274     0.000960  3
8
scan along A:[ 2.80591e-01 -3.30000e-05 -1.01000e-04] --> B[-1.183009e+00  9.000000e-06  4.400000e-05] - dist:8.5
CH3    -1.183009     0.000009     0.000044  1
CN     0.280591    -0.000033    -0.000101  1
N      1.434854     0.000012     0.000006  1
H     -1.551986     0.908175     0.472453  1
H     -1.551961    -0.863153     0.550412  1
H     -1.552113    -0.044999    -1.022607  1
Po    -9.683009     0.000253     0.000886  2
Ne   -10.683009     0.000282     0.000985  3
8
scan along A:[ 2.80591e-01 -3.30000e-05 -1.01000e-04] --> B[-1.183009e+00  9.000000e-06  4.400000e-05] - dist:8.75
CH3    -1.183009     0.000009     0.000044  1
CN     0.280591    -0.000033    -0.000101  1
N      1.434854     0.000012     0.000006  1
H     -1.551986     0.908175     0.472453  1
H     -1.551961    -0.863153     0.550412  1
H     -1.552113    -0.044999    -1.022607  1
Po    -9.933009     0.000260     0.000911  2
Ne   -10.933009     0.000289     0.001010  3
8
scan along A:[ 2.80591e-01 -3.30000e-05 -1.01000e-04] --> B[-1.183009e+00  9.000000e-06  4.400000e-05] - dist:9.0
CH3    -1.183009     0.000009     0.000044  1
CN     0.280591    -0.000033    -0.000101  1
N      1.434854     0.000012     0.000006  1
H     -1.551986     0.908175     0.472453  1
H     -1.551961    -0.863153     0.550412  1
H     -1.552113    -0.044999    -1.022607  1
Po   -10.183009     0.000267     0.000936  2
Ne   -11.183009     0.000296     0.001035  3
8
scan along A:[ 2.80591e-01 -3.30000e-05 -1.01000e-04] --> B[-1.183009e+00  9.000000e-06  4.400000e-05] - dist:9.25
CH3    -1.183009     0.000009     0.000044  1
CN     0.280591    -0.000033    -0.000101  1
N      1.434854     0.000012     0.000006  1
H     -1.551986     0.908175     0.472453  1
H     -1.551961    -0.863153     0.550412  1
H     -1.552113    -0.044999    -1.022607  1
Po   -10.433009     0.000274     0.000960  2
Ne   -11.433009     0.000303     0.001059  3
8
scan along A:[ 2.80591e-01 -3.30000e-05 -1.01000e-04] --> B[-1.183009e+00  9.000000e-06  4.400000e-05] - dist:9.5
CH3    -1.183009     0.000009     0.000044  1
CN     0.280591    -0.000033    -0.000101  1
N      1.434854     0.000012     0.000006  1
H     -1.551986     0.908175     0.472453  1
H     -1.551961    -0.863153     0.550412  1
H     -1.552113    -0.044999    -1.022607  1
Po   -10.683009     0.000282     0.000985  2
Ne   -11.683009     0.000310     0.001084  3
8
scan along A:[ 2.80591e-01 -3.30000e-05 -1.01000e-04] --> B[-1.183009e+00  9.000000e-06  4.400000e-05] - dist:9.75
CH3    -1.183009     0.000009     0.000044  1
CN     0.280591    -0.000033    -0.000101  1
N      1.434854     0.000012     0.000006  1
H     -1.551986     0.908175     0.472453  1
H     -1.551961    -0.863153     0.550412  1
H     -1.552113    -0.044999    -1.022607  1
Po   -10.933009     0.000289     0.001010  2
Ne   -11.933009     0.000317     0.001109  3
8
scan along A:[ 2.80591e-01 -3.30000e-05 -1.01000e-04] --> B[-1.183009e+00  9.000000e-06  4.400000e-05] - dist:10.0
CH3    -1.183009     0.000009     0.000044  1
CN     0.280591    -0.000033    -0.000101  1
N      1.434854     0.000012     0.000006  1
H     -1.551986     0.908175     0.472453  1
H     -1.551961    -0.863153     0.550412  1
H     -1.552113    -0.044999    -1.022607  1
Po   -11.183009     0.000296     0.001035  2
Ne   -12.183009     0.000325     0.001134  3
