5
scan along A:[0.0, 0.0, -0.115688] --> B[0.0, 0.0, -0.115689] - dist:2.0
O      0.000000     0.000000    -0.115688  1
H      0.000000    -0.758056     0.471834  1
H      0.000000     0.758056     0.471834  1
Po     0.000000     0.000000    -2.115689  2
Ne     0.000000     0.000000    -3.115689  3
5
scan along A:[0.0, 0.0, -0.115688] --> B[0.0, 0.0, -0.115689] - dist:2.25
O      0.000000     0.000000    -0.115688  1
H      0.000000    -0.758056     0.471834  1
H      0.000000     0.758056     0.471834  1
Po     0.000000     0.000000    -2.365689  2
Ne     0.000000     0.000000    -3.365689  3
5
scan along A:[0.0, 0.0, -0.115688] --> B[0.0, 0.0, -0.115689] - dist:2.5
O      0.000000     0.000000    -0.115688  1
H      0.000000    -0.758056     0.471834  1
H      0.000000     0.758056     0.471834  1
Po     0.000000     0.000000    -2.615689  2
Ne     0.000000     0.000000    -3.615689  3
5
scan along A:[0.0, 0.0, -0.115688] --> B[0.0, 0.0, -0.115689] - dist:2.75
O      0.000000     0.000000    -0.115688  1
H      0.000000    -0.758056     0.471834  1
H      0.000000     0.758056     0.471834  1
Po     0.000000     0.000000    -2.865689  2
Ne     0.000000     0.000000    -3.865689  3
5
scan along A:[0.0, 0.0, -0.115688] --> B[0.0, 0.0, -0.115689] - dist:3.0
O      0.000000     0.000000    -0.115688  1
H      0.000000    -0.758056     0.471834  1
H      0.000000     0.758056     0.471834  1
Po     0.000000     0.000000    -3.115689  2
Ne     0.000000     0.000000    -4.115689  3
5
scan along A:[0.0, 0.0, -0.115688] --> B[0.0, 0.0, -0.115689] - dist:3.25
O      0.000000     0.000000    -0.115688  1
H      0.000000    -0.758056     0.471834  1
H      0.000000     0.758056     0.471834  1
Po     0.000000     0.000000    -3.365689  2
Ne     0.000000     0.000000    -4.365689  3
5
scan along A:[0.0, 0.0, -0.115688] --> B[0.0, 0.0, -0.115689] - dist:3.5
O      0.000000     0.000000    -0.115688  1
H      0.000000    -0.758056     0.471834  1
H      0.000000     0.758056     0.471834  1
Po     0.000000     0.000000    -3.615689  2
Ne     0.000000     0.000000    -4.615689  3
5
scan along A:[0.0, 0.0, -0.115688] --> B[0.0, 0.0, -0.115689] - dist:3.75
O      0.000000     0.000000    -0.115688  1
H      0.000000    -0.758056     0.471834  1
H      0.000000     0.758056     0.471834  1
Po     0.000000     0.000000    -3.865689  2
Ne     0.000000     0.000000    -4.865689  3
5
scan along A:[0.0, 0.0, -0.115688] --> B[0.0, 0.0, -0.115689] - dist:4.0
O      0.000000     0.000000    -0.115688  1
H      0.000000    -0.758056     0.471834  1
H      0.000000     0.758056     0.471834  1
Po     0.000000     0.000000    -4.115689  2
Ne     0.000000     0.000000    -5.115689  3
5
scan along A:[0.0, 0.0, -0.115688] --> B[0.0, 0.0, -0.115689] - dist:4.25
O      0.000000     0.000000    -0.115688  1
H      0.000000    -0.758056     0.471834  1
H      0.000000     0.758056     0.471834  1
Po     0.000000     0.000000    -4.365689  2
Ne     0.000000     0.000000    -5.365689  3
5
scan along A:[0.0, 0.0, -0.115688] --> B[0.0, 0.0, -0.115689] - dist:4.5
O      0.000000     0.000000    -0.115688  1
H      0.000000    -0.758056     0.471834  1
H      0.000000     0.758056     0.471834  1
Po     0.000000     0.000000    -4.615689  2
Ne     0.000000     0.000000    -5.615689  3
5
scan along A:[0.0, 0.0, -0.115688] --> B[0.0, 0.0, -0.115689] - dist:4.75
O      0.000000     0.000000    -0.115688  1
H      0.000000    -0.758056     0.471834  1
H      0.000000     0.758056     0.471834  1
Po     0.000000     0.000000    -4.865689  2
Ne     0.000000     0.000000    -5.865689  3
5
scan along A:[0.0, 0.0, -0.115688] --> B[0.0, 0.0, -0.115689] - dist:5.0
O      0.000000     0.000000    -0.115688  1
H      0.000000    -0.758056     0.471834  1
H      0.000000     0.758056     0.471834  1
Po     0.000000     0.000000    -5.115689  2
Ne     0.000000     0.000000    -6.115689  3
5
scan along A:[0.0, 0.0, -0.115688] --> B[0.0, 0.0, -0.115689] - dist:5.25
O      0.000000     0.000000    -0.115688  1
H      0.000000    -0.758056     0.471834  1
H      0.000000     0.758056     0.471834  1
Po     0.000000     0.000000    -5.365689  2
Ne     0.000000     0.000000    -6.365689  3
5
scan along A:[0.0, 0.0, -0.115688] --> B[0.0, 0.0, -0.115689] - dist:5.5
O      0.000000     0.000000    -0.115688  1
H      0.000000    -0.758056     0.471834  1
H      0.000000     0.758056     0.471834  1
Po     0.000000     0.000000    -5.615689  2
Ne     0.000000     0.000000    -6.615689  3
5
scan along A:[0.0, 0.0, -0.115688] --> B[0.0, 0.0, -0.115689] - dist:5.75
O      0.000000     0.000000    -0.115688  1
H      0.000000    -0.758056     0.471834  1
H      0.000000     0.758056     0.471834  1
Po     0.000000     0.000000    -5.865689  2
Ne     0.000000     0.000000    -6.865689  3
5
scan along A:[0.0, 0.0, -0.115688] --> B[0.0, 0.0, -0.115689] - dist:6.0
O      0.000000     0.000000    -0.115688  1
H      0.000000    -0.758056     0.471834  1
H      0.000000     0.758056     0.471834  1
Po     0.000000     0.000000    -6.115689  2
Ne     0.000000     0.000000    -7.115689  3
5
scan along A:[0.0, 0.0, -0.115688] --> B[0.0, 0.0, -0.115689] - dist:6.25
O      0.000000     0.000000    -0.115688  1
H      0.000000    -0.758056     0.471834  1
H      0.000000     0.758056     0.471834  1
Po     0.000000     0.000000    -6.365689  2
Ne     0.000000     0.000000    -7.365689  3
5
scan along A:[0.0, 0.0, -0.115688] --> B[0.0, 0.0, -0.115689] - dist:6.5
O      0.000000     0.000000    -0.115688  1
H      0.000000    -0.758056     0.471834  1
H      0.000000     0.758056     0.471834  1
Po     0.000000     0.000000    -6.615689  2
Ne     0.000000     0.000000    -7.615689  3
5
scan along A:[0.0, 0.0, -0.115688] --> B[0.0, 0.0, -0.115689] - dist:6.75
O      0.000000     0.000000    -0.115688  1
H      0.000000    -0.758056     0.471834  1
H      0.000000     0.758056     0.471834  1
Po     0.000000     0.000000    -6.865689  2
Ne     0.000000     0.000000    -7.865689  3
5
scan along A:[0.0, 0.0, -0.115688] --> B[0.0, 0.0, -0.115689] - dist:7.0
O      0.000000     0.000000    -0.115688  1
H      0.000000    -0.758056     0.471834  1
H      0.000000     0.758056     0.471834  1
Po     0.000000     0.000000    -7.115689  2
Ne     0.000000     0.000000    -8.115689  3
5
scan along A:[0.0, 0.0, -0.115688] --> B[0.0, 0.0, -0.115689] - dist:7.25
O      0.000000     0.000000    -0.115688  1
H      0.000000    -0.758056     0.471834  1
H      0.000000     0.758056     0.471834  1
Po     0.000000     0.000000    -7.365689  2
Ne     0.000000     0.000000    -8.365689  3
5
scan along A:[0.0, 0.0, -0.115688] --> B[0.0, 0.0, -0.115689] - dist:7.5
O      0.000000     0.000000    -0.115688  1
H      0.000000    -0.758056     0.471834  1
H      0.000000     0.758056     0.471834  1
Po     0.000000     0.000000    -7.615689  2
Ne     0.000000     0.000000    -8.615689  3
5
scan along A:[0.0, 0.0, -0.115688] --> B[0.0, 0.0, -0.115689] - dist:7.75
O      0.000000     0.000000    -0.115688  1
H      0.000000    -0.758056     0.471834  1
H      0.000000     0.758056     0.471834  1
Po     0.000000     0.000000    -7.865689  2
Ne     0.000000     0.000000    -8.865689  3
5
scan along A:[0.0, 0.0, -0.115688] --> B[0.0, 0.0, -0.115689] - dist:8.0
O      0.000000     0.000000    -0.115688  1
H      0.000000    -0.758056     0.471834  1
H      0.000000     0.758056     0.471834  1
Po     0.000000     0.000000    -8.115689  2
Ne     0.000000     0.000000    -9.115689  3
5
scan along A:[0.0, 0.0, -0.115688] --> B[0.0, 0.0, -0.115689] - dist:8.25
O      0.000000     0.000000    -0.115688  1
H      0.000000    -0.758056     0.471834  1
H      0.000000     0.758056     0.471834  1
Po     0.000000     0.000000    -8.365689  2
Ne     0.000000     0.000000    -9.365689  3
5
scan along A:[0.0, 0.0, -0.115688] --> B[0.0, 0.0, -0.115689] - dist:8.5
O      0.000000     0.000000    -0.115688  1
H      0.000000    -0.758056     0.471834  1
H      0.000000     0.758056     0.471834  1
Po     0.000000     0.000000    -8.615689  2
Ne     0.000000     0.000000    -9.615689  3
5
scan along A:[0.0, 0.0, -0.115688] --> B[0.0, 0.0, -0.115689] - dist:8.75
O      0.000000     0.000000    -0.115688  1
H      0.000000    -0.758056     0.471834  1
H      0.000000     0.758056     0.471834  1
Po     0.000000     0.000000    -8.865689  2
Ne     0.000000     0.000000    -9.865689  3
5
scan along A:[0.0, 0.0, -0.115688] --> B[0.0, 0.0, -0.115689] - dist:9.0
O      0.000000     0.000000    -0.115688  1
H      0.000000    -0.758056     0.471834  1
H      0.000000     0.758056     0.471834  1
Po     0.000000     0.000000    -9.115689  2
Ne     0.000000     0.000000   -10.115689  3
5
scan along A:[0.0, 0.0, -0.115688] --> B[0.0, 0.0, -0.115689] - dist:9.25
O      0.000000     0.000000    -0.115688  1
H      0.000000    -0.758056     0.471834  1
H      0.000000     0.758056     0.471834  1
Po     0.000000     0.000000    -9.365689  2
Ne     0.000000     0.000000   -10.365689  3
5
scan along A:[0.0, 0.0, -0.115688] --> B[0.0, 0.0, -0.115689] - dist:9.5
O      0.000000     0.000000    -0.115688  1
H      0.000000    -0.758056     0.471834  1
H      0.000000     0.758056     0.471834  1
Po     0.000000     0.000000    -9.615689  2
Ne     0.000000     0.000000   -10.615689  3
5
scan along A:[0.0, 0.0, -0.115688] --> B[0.0, 0.0, -0.115689] - dist:9.75
O      0.000000     0.000000    -0.115688  1
H      0.000000    -0.758056     0.471834  1
H      0.000000     0.758056     0.471834  1
Po     0.000000     0.000000    -9.865689  2
Ne     0.000000     0.000000   -10.865689  3
5
scan along A:[0.0, 0.0, -0.115688] --> B[0.0, 0.0, -0.115689] - dist:10.0
O      0.000000     0.000000    -0.115688  1
H      0.000000    -0.758056     0.471834  1
H      0.000000     0.758056     0.471834  1
Po     0.000000     0.000000   -10.115689  2
Ne     0.000000     0.000000   -11.115689  3
