5
scan along A:[0.0, 0.0, -0.115688] --> B[0.0, 0.0, -0.115689] - dist:4.75
O      0.000000     0.000000    -0.115688  1
H      0.000000    -0.758056     0.471834  1
H      0.000000     0.758056     0.471834  1
Po     0.000000     0.000000    -4.865689  2
Ne     0.000000     0.000000    -5.865689  3
