5
scan along A:[ 0.        0.       -0.115688] --> B[ 0.       -0.758056  0.471834] - dist:3.5
O      0.000000     0.000000    -0.115688  1
H      0.000000    -0.758056     0.471834  1
H      0.000000     0.758056     0.471834  1
Po     0.000000    -3.524458     2.615900  2
Ne     0.000000    -4.314859     3.228490  3
