5
scan along A:[ 0.        0.       -0.115688] --> B[ 0.       -0.758056  0.471834] - dist:8.75
O      0.000000     0.000000    -0.115688  1
H      0.000000    -0.758056     0.471834  1
H      0.000000     0.758056     0.471834  1
Po     0.000000    -7.674062     5.831999  2
Ne     0.000000    -8.464462     6.444590  3
