5
scan along A:[ 0.       -0.758056  0.471834] --> B[ 0.        0.       -0.115688] - dist:8.5
O      0.000000     0.000000    -0.115688 
H      0.000000    -0.758056     0.471834 
H      0.000000     0.758056     0.471834 
Po     8.500000     0.000000    -0.115688
Ne     9.500000     0.000000    -0.115688
