5
scan along A:[ 0.        0.       -0.115688] --> B[ 0.       -0.758056  0.471834] - dist:5.5
O      0.000000     0.000000    -0.115688 
H      0.000000    -0.758056     0.471834 
H      0.000000     0.758056     0.471834 
Po    -5.500000    -0.758056     0.471834
Ne    -6.500000    -0.758056     0.471834
