#P opt CAM-B3LYP/6-311++g** nosymm

optimization of cyclohexane

0 1
C        1.000000        1.000000        0.000000
C       -0.530000        1.000000        0.000000
C       -1.090000        1.000000        1.420000
C       -0.520000        2.150000        2.250000
C        1.000000        2.150000        2.240000
C        1.560000        2.150000        0.830000
H        1.370000        1.070000       -1.030000
H        1.360000        0.050000        0.410000
H       -0.900000        0.120000       -0.540000
H       -0.890000        1.890000       -0.540000
H       -0.840000        0.050000        1.910000
H       -2.180000        1.070000        1.380000
H       -0.890000        2.080000        3.280000
H       -0.890000        3.100000        1.840000
H        1.370000        1.260000        2.780000
H        1.380000        3.030000        2.790000
H        2.660000        2.080000        0.860000
H        1.320000        3.100000        0.340000

