5
scan along A:[ 0.        0.       -0.115688] --> B[ 0.       -0.758056  0.471834] - dist:6.75
O      0.000000     0.000000    -0.115688 
H      0.000000    -0.758056     0.471834 
H      0.000000     0.758056     0.471834 
Po     0.000000    -6.093260     4.606819
Ne     0.000000    -6.883661     5.219409
