5
scan along A:[ 0.        0.       -0.115688] --> B[ 0.       -0.758056  0.471834] - dist:9.75
O      0.000000     0.000000    -0.115688 
H      0.000000    -0.758056     0.471834 
H      0.000000     0.758056     0.471834 
Po     0.000000    -8.464462     6.444590
Ne     0.000000    -9.254863     7.057180
