5
scan along A:[ 0.       -0.758056  0.471834] --> B[ 0.        0.       -0.115688] - dist:7.5
O      0.000000     0.000000    -0.115688  1
H      0.000000    -0.758056     0.471834  1
H      0.000000     0.758056     0.471834  1
Po     7.500000     0.000000    -0.115688  2
Ne     8.500000     0.000000    -0.115688  3
