# Polar CCSD/aug-cc-pVTZ nosymm

polarizability of acetonitrile

0 1
C    -1.183009    0.000009    0.000044
C     0.280591   -0.000033   -0.000101
N     1.434854    0.000012    0.000006
H    -1.551986    0.908175    0.472453
H    -1.551961   -0.863153    0.550412
H    -1.552113   -0.044999   -1.022607

