# Polar CCSD/aug-cc-pVTZ nosymm 

polarizability of methanol 

0 1
C      0.997897    0.986064   -0.008014
O     -0.422019    0.999211   -0.000572
H      1.399338    0.999753   -1.024504
H      1.399296    0.119782    0.523986
H      1.322862    1.888586    0.504866
H     -0.732374    0.211603   -0.448762

