14
scan along A:[-2.282182e+00  9.432900e-02 -1.830000e-04] --> B[-2.82404e+00 -8.44049e-01  1.25000e-04] - dist:2.0
C     -2.282182     0.094329    -0.000183 
C     -0.893220     0.094263     0.000431 
C     -0.198699     1.297110     0.000040 
C     -0.893125     2.500009    -0.000978 
C     -2.282088     2.500067    -0.001601 
C     -2.976633     1.297226    -0.001196 
H     -2.824040    -0.844049     0.000125 
H     -0.351527    -0.844201     0.001214 
H      0.884886     1.297069     0.000516 
H     -0.351327     3.438411    -0.001306 
H     -2.823832     3.438507    -0.002402 
H     -4.060212     1.297260    -0.001659 
Po    -3.824158    -2.576032     0.000693
Ne    -4.324217    -3.442023     0.000978
14
scan along A:[-2.282182e+00  9.432900e-02 -1.830000e-04] --> B[-2.82404e+00 -8.44049e-01  1.25000e-04] - dist:2.25
C     -2.282182     0.094329    -0.000183 
C     -0.893220     0.094263     0.000431 
C     -0.198699     1.297110     0.000040 
C     -0.893125     2.500009    -0.000978 
C     -2.282088     2.500067    -0.001601 
C     -2.976633     1.297226    -0.001196 
H     -2.824040    -0.844049     0.000125 
H     -0.351527    -0.844201     0.001214 
H      0.884886     1.297069     0.000516 
H     -0.351327     3.438411    -0.001306 
H     -2.823832     3.438507    -0.002402 
H     -4.060212     1.297260    -0.001659 
Po    -3.949172    -2.792529     0.000765
Ne    -4.449231    -3.658521     0.001049
14
scan along A:[-2.282182e+00  9.432900e-02 -1.830000e-04] --> B[-2.82404e+00 -8.44049e-01  1.25000e-04] - dist:2.5
C     -2.282182     0.094329    -0.000183 
C     -0.893220     0.094263     0.000431 
C     -0.198699     1.297110     0.000040 
C     -0.893125     2.500009    -0.000978 
C     -2.282088     2.500067    -0.001601 
C     -2.976633     1.297226    -0.001196 
H     -2.824040    -0.844049     0.000125 
H     -0.351527    -0.844201     0.001214 
H      0.884886     1.297069     0.000516 
H     -0.351327     3.438411    -0.001306 
H     -2.823832     3.438507    -0.002402 
H     -4.060212     1.297260    -0.001659 
Po    -4.074187    -3.009027     0.000836
Ne    -4.574246    -3.875019     0.001120
14
scan along A:[-2.282182e+00  9.432900e-02 -1.830000e-04] --> B[-2.82404e+00 -8.44049e-01  1.25000e-04] - dist:2.75
C     -2.282182     0.094329    -0.000183 
C     -0.893220     0.094263     0.000431 
C     -0.198699     1.297110     0.000040 
C     -0.893125     2.500009    -0.000978 
C     -2.282088     2.500067    -0.001601 
C     -2.976633     1.297226    -0.001196 
H     -2.824040    -0.844049     0.000125 
H     -0.351527    -0.844201     0.001214 
H      0.884886     1.297069     0.000516 
H     -0.351327     3.438411    -0.001306 
H     -2.823832     3.438507    -0.002402 
H     -4.060212     1.297260    -0.001659 
Po    -4.199202    -3.225525     0.000907
Ne    -4.699261    -4.091516     0.001191
14
scan along A:[-2.282182e+00  9.432900e-02 -1.830000e-04] --> B[-2.82404e+00 -8.44049e-01  1.25000e-04] - dist:3.0
C     -2.282182     0.094329    -0.000183 
C     -0.893220     0.094263     0.000431 
C     -0.198699     1.297110     0.000040 
C     -0.893125     2.500009    -0.000978 
C     -2.282088     2.500067    -0.001601 
C     -2.976633     1.297226    -0.001196 
H     -2.824040    -0.844049     0.000125 
H     -0.351527    -0.844201     0.001214 
H      0.884886     1.297069     0.000516 
H     -0.351327     3.438411    -0.001306 
H     -2.823832     3.438507    -0.002402 
H     -4.060212     1.297260    -0.001659 
Po    -4.324217    -3.442023     0.000978
Ne    -4.824276    -4.308014     0.001262
14
scan along A:[-2.282182e+00  9.432900e-02 -1.830000e-04] --> B[-2.82404e+00 -8.44049e-01  1.25000e-04] - dist:3.25
C     -2.282182     0.094329    -0.000183 
C     -0.893220     0.094263     0.000431 
C     -0.198699     1.297110     0.000040 
C     -0.893125     2.500009    -0.000978 
C     -2.282088     2.500067    -0.001601 
C     -2.976633     1.297226    -0.001196 
H     -2.824040    -0.844049     0.000125 
H     -0.351527    -0.844201     0.001214 
H      0.884886     1.297069     0.000516 
H     -0.351327     3.438411    -0.001306 
H     -2.823832     3.438507    -0.002402 
H     -4.060212     1.297260    -0.001659 
Po    -4.449231    -3.658521     0.001049
Ne    -4.949290    -4.524512     0.001333
14
scan along A:[-2.282182e+00  9.432900e-02 -1.830000e-04] --> B[-2.82404e+00 -8.44049e-01  1.25000e-04] - dist:3.5
C     -2.282182     0.094329    -0.000183 
C     -0.893220     0.094263     0.000431 
C     -0.198699     1.297110     0.000040 
C     -0.893125     2.500009    -0.000978 
C     -2.282088     2.500067    -0.001601 
C     -2.976633     1.297226    -0.001196 
H     -2.824040    -0.844049     0.000125 
H     -0.351527    -0.844201     0.001214 
H      0.884886     1.297069     0.000516 
H     -0.351327     3.438411    -0.001306 
H     -2.823832     3.438507    -0.002402 
H     -4.060212     1.297260    -0.001659 
Po    -4.574246    -3.875019     0.001120
Ne    -5.074305    -4.741010     0.001404
14
scan along A:[-2.282182e+00  9.432900e-02 -1.830000e-04] --> B[-2.82404e+00 -8.44049e-01  1.25000e-04] - dist:3.75
C     -2.282182     0.094329    -0.000183 
C     -0.893220     0.094263     0.000431 
C     -0.198699     1.297110     0.000040 
C     -0.893125     2.500009    -0.000978 
C     -2.282088     2.500067    -0.001601 
C     -2.976633     1.297226    -0.001196 
H     -2.824040    -0.844049     0.000125 
H     -0.351527    -0.844201     0.001214 
H      0.884886     1.297069     0.000516 
H     -0.351327     3.438411    -0.001306 
H     -2.823832     3.438507    -0.002402 
H     -4.060212     1.297260    -0.001659 
Po    -4.699261    -4.091516     0.001191
Ne    -5.199320    -4.957508     0.001475
14
scan along A:[-2.282182e+00  9.432900e-02 -1.830000e-04] --> B[-2.82404e+00 -8.44049e-01  1.25000e-04] - dist:4.0
C     -2.282182     0.094329    -0.000183 
C     -0.893220     0.094263     0.000431 
C     -0.198699     1.297110     0.000040 
C     -0.893125     2.500009    -0.000978 
C     -2.282088     2.500067    -0.001601 
C     -2.976633     1.297226    -0.001196 
H     -2.824040    -0.844049     0.000125 
H     -0.351527    -0.844201     0.001214 
H      0.884886     1.297069     0.000516 
H     -0.351327     3.438411    -0.001306 
H     -2.823832     3.438507    -0.002402 
H     -4.060212     1.297260    -0.001659 
Po    -4.824275    -4.308014     0.001262
Ne    -5.324334    -5.174005     0.001546
14
scan along A:[-2.282182e+00  9.432900e-02 -1.830000e-04] --> B[-2.82404e+00 -8.44049e-01  1.25000e-04] - dist:4.25
C     -2.282182     0.094329    -0.000183 
C     -0.893220     0.094263     0.000431 
C     -0.198699     1.297110     0.000040 
C     -0.893125     2.500009    -0.000978 
C     -2.282088     2.500067    -0.001601 
C     -2.976633     1.297226    -0.001196 
H     -2.824040    -0.844049     0.000125 
H     -0.351527    -0.844201     0.001214 
H      0.884886     1.297069     0.000516 
H     -0.351327     3.438411    -0.001306 
H     -2.823832     3.438507    -0.002402 
H     -4.060212     1.297260    -0.001659 
Po    -4.949290    -4.524512     0.001333
Ne    -5.449349    -5.390503     0.001617
14
scan along A:[-2.282182e+00  9.432900e-02 -1.830000e-04] --> B[-2.82404e+00 -8.44049e-01  1.25000e-04] - dist:4.5
C     -2.282182     0.094329    -0.000183 
C     -0.893220     0.094263     0.000431 
C     -0.198699     1.297110     0.000040 
C     -0.893125     2.500009    -0.000978 
C     -2.282088     2.500067    -0.001601 
C     -2.976633     1.297226    -0.001196 
H     -2.824040    -0.844049     0.000125 
H     -0.351527    -0.844201     0.001214 
H      0.884886     1.297069     0.000516 
H     -0.351327     3.438411    -0.001306 
H     -2.823832     3.438507    -0.002402 
H     -4.060212     1.297260    -0.001659 
Po    -5.074305    -4.741010     0.001404
Ne    -5.574364    -5.607001     0.001688
14
scan along A:[-2.282182e+00  9.432900e-02 -1.830000e-04] --> B[-2.82404e+00 -8.44049e-01  1.25000e-04] - dist:4.75
C     -2.282182     0.094329    -0.000183 
C     -0.893220     0.094263     0.000431 
C     -0.198699     1.297110     0.000040 
C     -0.893125     2.500009    -0.000978 
C     -2.282088     2.500067    -0.001601 
C     -2.976633     1.297226    -0.001196 
H     -2.824040    -0.844049     0.000125 
H     -0.351527    -0.844201     0.001214 
H      0.884886     1.297069     0.000516 
H     -0.351327     3.438411    -0.001306 
H     -2.823832     3.438507    -0.002402 
H     -4.060212     1.297260    -0.001659 
Po    -5.199320    -4.957508     0.001475
Ne    -5.699379    -5.823499     0.001759
14
scan along A:[-2.282182e+00  9.432900e-02 -1.830000e-04] --> B[-2.82404e+00 -8.44049e-01  1.25000e-04] - dist:5.0
C     -2.282182     0.094329    -0.000183 
C     -0.893220     0.094263     0.000431 
C     -0.198699     1.297110     0.000040 
C     -0.893125     2.500009    -0.000978 
C     -2.282088     2.500067    -0.001601 
C     -2.976633     1.297226    -0.001196 
H     -2.824040    -0.844049     0.000125 
H     -0.351527    -0.844201     0.001214 
H      0.884886     1.297069     0.000516 
H     -0.351327     3.438411    -0.001306 
H     -2.823832     3.438507    -0.002402 
H     -4.060212     1.297260    -0.001659 
Po    -5.324334    -5.174006     0.001546
Ne    -5.824393    -6.039997     0.001830
14
scan along A:[-2.282182e+00  9.432900e-02 -1.830000e-04] --> B[-2.82404e+00 -8.44049e-01  1.25000e-04] - dist:5.25
C     -2.282182     0.094329    -0.000183 
C     -0.893220     0.094263     0.000431 
C     -0.198699     1.297110     0.000040 
C     -0.893125     2.500009    -0.000978 
C     -2.282088     2.500067    -0.001601 
C     -2.976633     1.297226    -0.001196 
H     -2.824040    -0.844049     0.000125 
H     -0.351527    -0.844201     0.001214 
H      0.884886     1.297069     0.000516 
H     -0.351327     3.438411    -0.001306 
H     -2.823832     3.438507    -0.002402 
H     -4.060212     1.297260    -0.001659 
Po    -5.449349    -5.390503     0.001617
Ne    -5.949409    -6.256495     0.001902
14
scan along A:[-2.282182e+00  9.432900e-02 -1.830000e-04] --> B[-2.82404e+00 -8.44049e-01  1.25000e-04] - dist:5.5
C     -2.282182     0.094329    -0.000183 
C     -0.893220     0.094263     0.000431 
C     -0.198699     1.297110     0.000040 
C     -0.893125     2.500009    -0.000978 
C     -2.282088     2.500067    -0.001601 
C     -2.976633     1.297226    -0.001196 
H     -2.824040    -0.844049     0.000125 
H     -0.351527    -0.844201     0.001214 
H      0.884886     1.297069     0.000516 
H     -0.351327     3.438411    -0.001306 
H     -2.823832     3.438507    -0.002402 
H     -4.060212     1.297260    -0.001659 
Po    -5.574364    -5.607001     0.001688
Ne    -6.074423    -6.472992     0.001973
14
scan along A:[-2.282182e+00  9.432900e-02 -1.830000e-04] --> B[-2.82404e+00 -8.44049e-01  1.25000e-04] - dist:5.75
C     -2.282182     0.094329    -0.000183 
C     -0.893220     0.094263     0.000431 
C     -0.198699     1.297110     0.000040 
C     -0.893125     2.500009    -0.000978 
C     -2.282088     2.500067    -0.001601 
C     -2.976633     1.297226    -0.001196 
H     -2.824040    -0.844049     0.000125 
H     -0.351527    -0.844201     0.001214 
H      0.884886     1.297069     0.000516 
H     -0.351327     3.438411    -0.001306 
H     -2.823832     3.438507    -0.002402 
H     -4.060212     1.297260    -0.001659 
Po    -5.699378    -5.823499     0.001759
Ne    -6.199437    -6.689490     0.002044
14
scan along A:[-2.282182e+00  9.432900e-02 -1.830000e-04] --> B[-2.82404e+00 -8.44049e-01  1.25000e-04] - dist:6.0
C     -2.282182     0.094329    -0.000183 
C     -0.893220     0.094263     0.000431 
C     -0.198699     1.297110     0.000040 
C     -0.893125     2.500009    -0.000978 
C     -2.282088     2.500067    -0.001601 
C     -2.976633     1.297226    -0.001196 
H     -2.824040    -0.844049     0.000125 
H     -0.351527    -0.844201     0.001214 
H      0.884886     1.297069     0.000516 
H     -0.351327     3.438411    -0.001306 
H     -2.823832     3.438507    -0.002402 
H     -4.060212     1.297260    -0.001659 
Po    -5.824393    -6.039997     0.001830
Ne    -6.324452    -6.905988     0.002115
14
scan along A:[-2.282182e+00  9.432900e-02 -1.830000e-04] --> B[-2.82404e+00 -8.44049e-01  1.25000e-04] - dist:6.25
C     -2.282182     0.094329    -0.000183 
C     -0.893220     0.094263     0.000431 
C     -0.198699     1.297110     0.000040 
C     -0.893125     2.500009    -0.000978 
C     -2.282088     2.500067    -0.001601 
C     -2.976633     1.297226    -0.001196 
H     -2.824040    -0.844049     0.000125 
H     -0.351527    -0.844201     0.001214 
H      0.884886     1.297069     0.000516 
H     -0.351327     3.438411    -0.001306 
H     -2.823832     3.438507    -0.002402 
H     -4.060212     1.297260    -0.001659 
Po    -5.949408    -6.256495     0.001902
Ne    -6.449467    -7.122486     0.002186
14
scan along A:[-2.282182e+00  9.432900e-02 -1.830000e-04] --> B[-2.82404e+00 -8.44049e-01  1.25000e-04] - dist:6.5
C     -2.282182     0.094329    -0.000183 
C     -0.893220     0.094263     0.000431 
C     -0.198699     1.297110     0.000040 
C     -0.893125     2.500009    -0.000978 
C     -2.282088     2.500067    -0.001601 
C     -2.976633     1.297226    -0.001196 
H     -2.824040    -0.844049     0.000125 
H     -0.351527    -0.844201     0.001214 
H      0.884886     1.297069     0.000516 
H     -0.351327     3.438411    -0.001306 
H     -2.823832     3.438507    -0.002402 
H     -4.060212     1.297260    -0.001659 
Po    -6.074423    -6.472992     0.001973
Ne    -6.574482    -7.338984     0.002257
14
scan along A:[-2.282182e+00  9.432900e-02 -1.830000e-04] --> B[-2.82404e+00 -8.44049e-01  1.25000e-04] - dist:6.75
C     -2.282182     0.094329    -0.000183 
C     -0.893220     0.094263     0.000431 
C     -0.198699     1.297110     0.000040 
C     -0.893125     2.500009    -0.000978 
C     -2.282088     2.500067    -0.001601 
C     -2.976633     1.297226    -0.001196 
H     -2.824040    -0.844049     0.000125 
H     -0.351527    -0.844201     0.001214 
H      0.884886     1.297069     0.000516 
H     -0.351327     3.438411    -0.001306 
H     -2.823832     3.438507    -0.002402 
H     -4.060212     1.297260    -0.001659 
Po    -6.199437    -6.689490     0.002044
Ne    -6.699496    -7.555481     0.002328
14
scan along A:[-2.282182e+00  9.432900e-02 -1.830000e-04] --> B[-2.82404e+00 -8.44049e-01  1.25000e-04] - dist:7.0
C     -2.282182     0.094329    -0.000183 
C     -0.893220     0.094263     0.000431 
C     -0.198699     1.297110     0.000040 
C     -0.893125     2.500009    -0.000978 
C     -2.282088     2.500067    -0.001601 
C     -2.976633     1.297226    -0.001196 
H     -2.824040    -0.844049     0.000125 
H     -0.351527    -0.844201     0.001214 
H      0.884886     1.297069     0.000516 
H     -0.351327     3.438411    -0.001306 
H     -2.823832     3.438507    -0.002402 
H     -4.060212     1.297260    -0.001659 
Po    -6.324452    -6.905988     0.002115
Ne    -6.824512    -7.771979     0.002399
14
scan along A:[-2.282182e+00  9.432900e-02 -1.830000e-04] --> B[-2.82404e+00 -8.44049e-01  1.25000e-04] - dist:7.25
C     -2.282182     0.094329    -0.000183 
C     -0.893220     0.094263     0.000431 
C     -0.198699     1.297110     0.000040 
C     -0.893125     2.500009    -0.000978 
C     -2.282088     2.500067    -0.001601 
C     -2.976633     1.297226    -0.001196 
H     -2.824040    -0.844049     0.000125 
H     -0.351527    -0.844201     0.001214 
H      0.884886     1.297069     0.000516 
H     -0.351327     3.438411    -0.001306 
H     -2.823832     3.438507    -0.002402 
H     -4.060212     1.297260    -0.001659 
Po    -6.449467    -7.122486     0.002186
Ne    -6.949526    -7.988477     0.002470
14
scan along A:[-2.282182e+00  9.432900e-02 -1.830000e-04] --> B[-2.82404e+00 -8.44049e-01  1.25000e-04] - dist:7.5
C     -2.282182     0.094329    -0.000183 
C     -0.893220     0.094263     0.000431 
C     -0.198699     1.297110     0.000040 
C     -0.893125     2.500009    -0.000978 
C     -2.282088     2.500067    -0.001601 
C     -2.976633     1.297226    -0.001196 
H     -2.824040    -0.844049     0.000125 
H     -0.351527    -0.844201     0.001214 
H      0.884886     1.297069     0.000516 
H     -0.351327     3.438411    -0.001306 
H     -2.823832     3.438507    -0.002402 
H     -4.060212     1.297260    -0.001659 
Po    -6.574481    -7.338984     0.002257
Ne    -7.074540    -8.204975     0.002541
14
scan along A:[-2.282182e+00  9.432900e-02 -1.830000e-04] --> B[-2.82404e+00 -8.44049e-01  1.25000e-04] - dist:7.75
C     -2.282182     0.094329    -0.000183 
C     -0.893220     0.094263     0.000431 
C     -0.198699     1.297110     0.000040 
C     -0.893125     2.500009    -0.000978 
C     -2.282088     2.500067    -0.001601 
C     -2.976633     1.297226    -0.001196 
H     -2.824040    -0.844049     0.000125 
H     -0.351527    -0.844201     0.001214 
H      0.884886     1.297069     0.000516 
H     -0.351327     3.438411    -0.001306 
H     -2.823832     3.438507    -0.002402 
H     -4.060212     1.297260    -0.001659 
Po    -6.699496    -7.555481     0.002328
Ne    -7.199555    -8.421473     0.002612
14
scan along A:[-2.282182e+00  9.432900e-02 -1.830000e-04] --> B[-2.82404e+00 -8.44049e-01  1.25000e-04] - dist:8.0
C     -2.282182     0.094329    -0.000183 
C     -0.893220     0.094263     0.000431 
C     -0.198699     1.297110     0.000040 
C     -0.893125     2.500009    -0.000978 
C     -2.282088     2.500067    -0.001601 
C     -2.976633     1.297226    -0.001196 
H     -2.824040    -0.844049     0.000125 
H     -0.351527    -0.844201     0.001214 
H      0.884886     1.297069     0.000516 
H     -0.351327     3.438411    -0.001306 
H     -2.823832     3.438507    -0.002402 
H     -4.060212     1.297260    -0.001659 
Po    -6.824511    -7.771979     0.002399
Ne    -7.324570    -8.637971     0.002683
14
scan along A:[-2.282182e+00  9.432900e-02 -1.830000e-04] --> B[-2.82404e+00 -8.44049e-01  1.25000e-04] - dist:8.25
C     -2.282182     0.094329    -0.000183 
C     -0.893220     0.094263     0.000431 
C     -0.198699     1.297110     0.000040 
C     -0.893125     2.500009    -0.000978 
C     -2.282088     2.500067    -0.001601 
C     -2.976633     1.297226    -0.001196 
H     -2.824040    -0.844049     0.000125 
H     -0.351527    -0.844201     0.001214 
H      0.884886     1.297069     0.000516 
H     -0.351327     3.438411    -0.001306 
H     -2.823832     3.438507    -0.002402 
H     -4.060212     1.297260    -0.001659 
Po    -6.949526    -7.988477     0.002470
Ne    -7.449585    -8.854468     0.002754
14
scan along A:[-2.282182e+00  9.432900e-02 -1.830000e-04] --> B[-2.82404e+00 -8.44049e-01  1.25000e-04] - dist:8.5
C     -2.282182     0.094329    -0.000183 
C     -0.893220     0.094263     0.000431 
C     -0.198699     1.297110     0.000040 
C     -0.893125     2.500009    -0.000978 
C     -2.282088     2.500067    -0.001601 
C     -2.976633     1.297226    -0.001196 
H     -2.824040    -0.844049     0.000125 
H     -0.351527    -0.844201     0.001214 
H      0.884886     1.297069     0.000516 
H     -0.351327     3.438411    -0.001306 
H     -2.823832     3.438507    -0.002402 
H     -4.060212     1.297260    -0.001659 
Po    -7.074541    -8.204975     0.002541
Ne    -7.574599    -9.070967     0.002825
14
scan along A:[-2.282182e+00  9.432900e-02 -1.830000e-04] --> B[-2.82404e+00 -8.44049e-01  1.25000e-04] - dist:8.75
C     -2.282182     0.094329    -0.000183 
C     -0.893220     0.094263     0.000431 
C     -0.198699     1.297110     0.000040 
C     -0.893125     2.500009    -0.000978 
C     -2.282088     2.500067    -0.001601 
C     -2.976633     1.297226    -0.001196 
H     -2.824040    -0.844049     0.000125 
H     -0.351527    -0.844201     0.001214 
H      0.884886     1.297069     0.000516 
H     -0.351327     3.438411    -0.001306 
H     -2.823832     3.438507    -0.002402 
H     -4.060212     1.297260    -0.001659 
Po    -7.199555    -8.421473     0.002612
Ne    -7.699615    -9.287464     0.002896
14
scan along A:[-2.282182e+00  9.432900e-02 -1.830000e-04] --> B[-2.82404e+00 -8.44049e-01  1.25000e-04] - dist:9.0
C     -2.282182     0.094329    -0.000183 
C     -0.893220     0.094263     0.000431 
C     -0.198699     1.297110     0.000040 
C     -0.893125     2.500009    -0.000978 
C     -2.282088     2.500067    -0.001601 
C     -2.976633     1.297226    -0.001196 
H     -2.824040    -0.844049     0.000125 
H     -0.351527    -0.844201     0.001214 
H      0.884886     1.297069     0.000516 
H     -0.351327     3.438411    -0.001306 
H     -2.823832     3.438507    -0.002402 
H     -4.060212     1.297260    -0.001659 
Po    -7.324570    -8.637970     0.002683
Ne    -7.824629    -9.503962     0.002967
14
scan along A:[-2.282182e+00  9.432900e-02 -1.830000e-04] --> B[-2.82404e+00 -8.44049e-01  1.25000e-04] - dist:9.25
C     -2.282182     0.094329    -0.000183 
C     -0.893220     0.094263     0.000431 
C     -0.198699     1.297110     0.000040 
C     -0.893125     2.500009    -0.000978 
C     -2.282088     2.500067    -0.001601 
C     -2.976633     1.297226    -0.001196 
H     -2.824040    -0.844049     0.000125 
H     -0.351527    -0.844201     0.001214 
H      0.884886     1.297069     0.000516 
H     -0.351327     3.438411    -0.001306 
H     -2.823832     3.438507    -0.002402 
H     -4.060212     1.297260    -0.001659 
Po    -7.449584    -8.854469     0.002754
Ne    -7.949643    -9.720461     0.003038
14
scan along A:[-2.282182e+00  9.432900e-02 -1.830000e-04] --> B[-2.82404e+00 -8.44049e-01  1.25000e-04] - dist:9.5
C     -2.282182     0.094329    -0.000183 
C     -0.893220     0.094263     0.000431 
C     -0.198699     1.297110     0.000040 
C     -0.893125     2.500009    -0.000978 
C     -2.282088     2.500067    -0.001601 
C     -2.976633     1.297226    -0.001196 
H     -2.824040    -0.844049     0.000125 
H     -0.351527    -0.844201     0.001214 
H      0.884886     1.297069     0.000516 
H     -0.351327     3.438411    -0.001306 
H     -2.823832     3.438507    -0.002402 
H     -4.060212     1.297260    -0.001659 
Po    -7.574599    -9.070967     0.002825
Ne    -8.074658    -9.936958     0.003110
14
scan along A:[-2.282182e+00  9.432900e-02 -1.830000e-04] --> B[-2.82404e+00 -8.44049e-01  1.25000e-04] - dist:9.75
C     -2.282182     0.094329    -0.000183 
C     -0.893220     0.094263     0.000431 
C     -0.198699     1.297110     0.000040 
C     -0.893125     2.500009    -0.000978 
C     -2.282088     2.500067    -0.001601 
C     -2.976633     1.297226    -0.001196 
H     -2.824040    -0.844049     0.000125 
H     -0.351527    -0.844201     0.001214 
H      0.884886     1.297069     0.000516 
H     -0.351327     3.438411    -0.001306 
H     -2.823832     3.438507    -0.002402 
H     -4.060212     1.297260    -0.001659 
Po    -7.699614    -9.287464     0.002896
Ne    -8.199673   -10.153456     0.003181
14
scan along A:[-2.282182e+00  9.432900e-02 -1.830000e-04] --> B[-2.82404e+00 -8.44049e-01  1.25000e-04] - dist:10.0
C     -2.282182     0.094329    -0.000183 
C     -0.893220     0.094263     0.000431 
C     -0.198699     1.297110     0.000040 
C     -0.893125     2.500009    -0.000978 
C     -2.282088     2.500067    -0.001601 
C     -2.976633     1.297226    -0.001196 
H     -2.824040    -0.844049     0.000125 
H     -0.351527    -0.844201     0.001214 
H      0.884886     1.297069     0.000516 
H     -0.351327     3.438411    -0.001306 
H     -2.823832     3.438507    -0.002402 
H     -4.060212     1.297260    -0.001659 
Po    -7.824629    -9.503962     0.002967
Ne    -8.324688   -10.369953     0.003252
